*HEADING
cubit(/efe/psuedo_models/psuedo_reactor/sensitivity/default.inp): 07/11/2019: 15
version: 15.3
**
********************************** P A R T S **********************************
*PART, NAME=Part-Default
**
********************************** N O D E S **********************************
*NODE, NSET=ALLNODES
       1,    3.200000e+00,    0.000000e+00,   -4.800000e+00
       2,    3.179879e+00,   -3.582863e-01,   -4.800000e+00
       3,    3.119769e+00,   -7.120670e-01,   -4.800000e+00
       4,    3.020427e+00,   -1.056893e+00,   -4.800000e+00
       5,    2.883100e+00,   -1.388428e+00,   -4.800000e+00
       6,    2.709517e+00,   -1.702503e+00,   -4.800000e+00
       7,    2.501861e+00,   -1.995167e+00,   -4.800000e+00
       8,    2.262742e+00,   -2.262742e+00,   -4.800000e+00
       9,    1.995167e+00,   -2.501861e+00,   -4.800000e+00
      10,    1.702503e+00,   -2.709517e+00,   -4.800000e+00
      11,    1.388428e+00,   -2.883100e+00,   -4.800000e+00
      12,    1.056893e+00,   -3.020427e+00,   -4.800000e+00
      13,    7.120670e-01,   -3.119769e+00,   -4.800000e+00
      14,    3.582863e-01,   -3.179879e+00,   -4.800000e+00
      15,    1.959435e-16,   -3.200000e+00,   -4.800000e+00
      16,   -3.582863e-01,   -3.179879e+00,   -4.800000e+00
      17,   -7.120670e-01,   -3.119769e+00,   -4.800000e+00
      18,   -1.056893e+00,   -3.020427e+00,   -4.800000e+00
      19,   -1.388428e+00,   -2.883100e+00,   -4.800000e+00
      20,   -1.702503e+00,   -2.709517e+00,   -4.800000e+00
** ... 7210 like lines cut
**
********************************** E L E M E N T S ****************************
*ELEMENT, TYPE=C3D8R, ELSET=reactor
       1,    2912,    2858,    1569,    1592,     168,     113,      57,      58
       2,    1458,    1457,    2858,    2912,       2,       1,     113,     168
       3,    2911,    2912,    1592,    1615,     167,     168,      58,      59
       4,    1459,    1458,    2912,    2911,       3,       2,     168,     167
       5,    2910,    2911,    1615,    1638,     166,     167,      59,      60
       6,    1460,    1459,    2911,    2910,       4,       3,     167,     166
       7,    2909,    2910,    1638,    1661,     165,     166,      60,      61
       8,    1461,    1460,    2910,    2909,       5,       4,     166,     165
       9,    2908,    2909,    1661,    1684,     164,     165,      61,      62
      10,    1462,    1461,    2909,    2908,       6,       5,     165,     164
      11,    2907,    2908,    1684,    1707,     163,     164,      62,      63
      12,    1463,    1462,    2908,    2907,       7,       6,     164,     163
      13,    2906,    2907,    1707,    1730,     162,     163,      63,      64
      14,    1464,    1463,    2907,    2906,       8,       7,     163,     162
      15,    2905,    2906,    1730,    1753,     161,     162,      64,      65
      16,    1465,    1464,    2906,    2905,       9,       8,     162,     161
      17,    2904,    2905,    1753,    1776,     160,     161,      65,      66
      18,    1466,    1465,    2905,    2904,      10,       9,     161,     160
      19,    2903,    2904,    1776,    1799,     159,     160,      66,      67
      20,    1467,    1466,    2904,    2903,      11,      10,     160,     159
** ... 4796 like lines cut
**
********************************** N O D E S E T S **********************************
*NSET, NSET=reactor_bottom
       1,       2,       3,       4,       5,       6,
       7,       8,       9,      10,      11,      12,
      13,      14,      15,      16,      17,      18,
      19,      20,      21,      22,      23,      24,
      25,      26,      27,      28,      29,      30,
      31,      32,      33,      34,      35,      36,
      37,      38,      39,      40,      41,      42,
      43,      44,      45,      46,      47,      48,
      49,      50,      51,      52,      53,      54,
      55,      56,      57,      58,      59,      60,
      61,      62,      63,      64,      65,      66,
      67,      68,      69,      70,      71,      72,
      73,      74,      75,      76,      77,      78,
      79,      80,      81,      82,      83,      84,
      85,      86,      87,      88,      89,      90,
      91,      92,      93,      94,      95,      96,
      97,      98,      99,     100,     101,     102,
     103,     104,     105,     106,     107,     108,
     109,     110,     111,     112,     113,     114,
     115,     116,     117,     118,     119,     120,
** ... 93 like lines cut
*NSET, NSET=reactor_top
    1345,    1346,    1347,    1348,    1349,    1350,
    1351,    1352,    1353,    1354,    1355,    1356,
    1357,    1358,    1359,    1360,    1361,    1362,
    1363,    1364,    1365,    1366,    1367,    1368,
    1369,    1370,    1371,    1372,    1373,    1374,
    1375,    1376,    1377,    1378,    1379,    1380,
    1381,    1382,    1383,    1384,    1385,    1386,
    1387,    1388,    1389,    1390,    1391,    1392,
    1393,    1394,    1395,    1396,    1397,    1398,
    1399,    1400,    1513,    1514,    1515,    1516,
    1517,    1518,    1519,    1520,    1521,    1522,
    1523,    1524,    1525,    1526,    1527,    1528,
    1529,    1530,    1531,    1532,    1533,    1534,
    1535,    1536,    1537,    1538,    1539,    1540,
    1541,    1542,    1543,    1544,    1545,    1546,
    1547,    1548,    1549,    1550,    1551,    1552,
    1553,    1554,    1555,    1556,    1557,    1558,
    1559,    1560,    1561,    1562,    1563,    1564,
    1565,    1566,    1567,    1568,    4145,    4146,
    4147,    4148,    4149,    4150,    4151,    4152,
** ... 93 like lines cut
*NSET, NSET=reactor_inner
     169,     170,     171,     172,     173,     174,
     175,     176,     177,     178,     179,     180,
     181,     182,     183,     184,     185,     186,
     187,     188,     189,     190,     191,     192,
     193,     194,     195,     196,     197,     198,
     199,     200,     201,     202,     203,     204,
     205,     206,     207,     208,     209,     210,
     211,     212,     213,     214,     215,     216,
     217,     218,     219,     220,     221,     222,
     223,     224,     225,     226,     227,     228,
     229,     230,     231,     232,     233,     234,
     235,     236,     237,     238,     239,     240,
     241,     242,     243,     244,     245,     246,
     247,     248,     249,     250,     251,     252,
     253,     254,     255,     256,     257,     258,
     259,     260,     261,     262,     263,     264,
     265,     266,     267,     268,     269,     270,
     271,     272,     273,     274,     275,     276,
     277,     278,     279,     280,     281,     282,
     283,     284,     285,     286,     287,     288,
** ... 176 like lines cut
*NSET, NSET=reactor_outter
      57,      58,      59,      60,      61,      62,
      63,      64,      65,      66,      67,      68,
      69,      70,      71,      72,      73,      74,
      75,      76,      77,      78,      79,      80,
      81,      82,      83,      84,      85,      86,
      87,      88,      89,      90,      91,      92,
      93,      94,      95,      96,      97,      98,
      99,     100,     101,     102,     103,     104,
     105,     106,     107,     108,     109,     110,
     111,     112,    1513,    1514,    1515,    1516,
    1517,    1518,    1519,    1520,    1521,    1522,
    1523,    1524,    1525,    1526,    1527,    1528,
    1529,    1530,    1531,    1532,    1533,    1534,
    1535,    1536,    1537,    1538,    1539,    1540,
    1541,    1542,    1543,    1544,    1545,    1546,
    1547,    1548,    1549,    1550,    1551,    1552,
    1553,    1554,    1555,    1556,    1557,    1558,
    1559,    1560,    1561,    1562,    1563,    1564,
    1565,    1566,    1567,    1568,    1569,    1570,
    1571,    1572,    1573,    1574,    1575,    1576,
** ... 214 like lines cut
**
********************************** S I D E S E T S **********************************
*ELSET, ELSET=reactor_bottom_S2
       1,       2,       3,       4,       5,       6,       7,       8,       9,      10,
      11,      12,      13,      14,      15,      16,      17,      18,      19,      20,
      21,      22,      23,      24,      25,      26,      27,      28,      29,      30,
      31,      32,      33,      34,      35,      36,      37,      38,      39,      40,
      41,      42,      43,      44,      45,      46,      47,      48,      49,      50,
      51,      52,      53,      54,      55,      56,      57,      58,      59,      60,
      61,      62,      63,      64,      65,      66,      67,      68,      69,      70,
      71,      72,      73,      74,      75,      76,      77,      78,      79,      80,
      81,      82,      83,      84,      85,      86,      87,      88,      89,      90,
      91,      92,      93,      94,      95,      96,      97,      98,      99,     100,
     101,     102,     103,     104,     105,     106,     107,     108,     109,     110,
     111,     112,    2689,    2690,    2691,    2692,    2693,    2694,    2695,    2696,
    2697,    2698,    2699,    2700,    2701,    2702,    2703,    2704,    2705,    2706,
    2707,    2708,    2709,    2710,    2711,    2712,    2713,    2714,    2715,    2716,
    2717,    2718,    2719,    2720,    2721,    2722,    2723,    2724,    2725,    2726,
    2727,    2728,    2729,    2730,    2731,    2732,    2733,    2734,    2735,    2736,
    2737,    2738,    2739,    2740,    2741,    2742,    2743,    2744,    2745,    2746,
    2747,    2748,    2749,    2750,    2751,    2752,    2753,    2754,    2755,    2756,
    2757,    2758,    2759,    2760,    2761,    2762,    2763,    2764,    2765,    2766,
    2767,    2768,    2769,    2770,    2771,    2772,    2773,    2774,    2775,    2776,
** ... 45 like lines cut
*SURFACE, NAME=reactor_bottom
reactor_bottom_S2, S2
*ELSET, ELSET=reactor_top_S1
    2577,    2578,    2579,    2580,    2581,    2582,    2583,    2584,    2585,    2586,
    2587,    2588,    2589,    2590,    2591,    2592,    2593,    2594,    2595,    2596,
    2597,    2598,    2599,    2600,    2601,    2602,    2603,    2604,    2605,    2606,
    2607,    2608,    2609,    2610,    2611,    2612,    2613,    2614,    2615,    2616,
    2617,    2618,    2619,    2620,    2621,    2622,    2623,    2624,    2625,    2626,
    2627,    2628,    2629,    2630,    2631,    2632,    2633,    2634,    2635,    2636,
    2637,    2638,    2639,    2640,    2641,    2642,    2643,    2644,    2645,    2646,
    2647,    2648,    2649,    2650,    2651,    2652,    2653,    2654,    2655,    2656,
    2657,    2658,    2659,    2660,    2661,    2662,    2663,    2664,    2665,    2666,
    2667,    2668,    2669,    2670,    2671,    2672,    2673,    2674,    2675,    2676,
    2677,    2678,    2679,    2680,    2681,    2682,    2683,    2684,    2685,    2686,
    2687,    2688,    4285,    4286,    4287,    4288,    4289,    4290,    4291,    4292,
    4293,    4294,    4295,    4296,    4297,    4298,    4299,    4300,    4301,    4302,
    4303,    4304,    4305,    4306,    4307,    4308,    4309,    4310,    4311,    4312,
    4313,    4314,    4315,    4316,    4317,    4318,    4319,    4320,    4321,    4322,
    4323,    4324,    4325,    4326,    4327,    4328,    4329,    4330,    4331,    4332,
    4333,    4334,    4335,    4336,    4337,    4338,    4339,    4340,    4341,    4342,
    4343,    4344,    4345,    4346,    4347,    4348,    4349,    4350,    4351,    4352,
    4353,    4354,    4355,    4356,    4357,    4358,    4359,    4360,    4361,    4362,
    4363,    4364,    4365,    4366,    4367,    4368,    4369,    4370,    4371,    4372,
** ... 45 like lines cut
*SURFACE, NAME=reactor_top
reactor_top_S1, S1
*ELSET, ELSET=reactor_inner_S3
     226,     228,     230,     232,     234,     236,     238,     240,     242,     244,
     246,     248,     250,     252,     254,     256,     258,     260,     262,     264,
     266,     268,     270,     272,     274,     276,     278,     280,     282,     284,
     286,     288,     290,     292,     294,     296,     298,     300,     302,     304,
     306,     308,     310,     312,     314,     316,     318,     320,     322,     324,
     326,     328,     330,     332,     334,     336,     338,     340,     342,     344,
     346,     348,     350,     352,     354,     356,     358,     360,     362,     364,
     366,     368,     370,     372,     374,     376,     378,     380,     382,     384,
     386,     388,     390,     392,     394,     396,     398,     400,     402,     404,
     406,     408,     410,     412,     414,     416,     418,     420,     422,     424,
     426,     428,     430,     432,     434,     436,     438,     440,     442,     444,
     446,     448,     450,     452,     454,     456,     458,     460,     462,     464,
     466,     468,     470,     472,     474,     476,     478,     480,     482,     484,
     486,     488,     490,     492,     494,     496,     498,     500,     502,     504,
     506,     508,     510,     512,     514,     516,     518,     520,     522,     524,
     526,     528,     530,     532,     534,     536,     538,     540,     542,     544,
     546,     548,     550,     552,     554,     556,     558,     560,     562,     564,
     566,     568,     570,     572,     574,     576,     578,     580,     582,     584,
     586,     588,     590,     592,     594,     596,     598,     600,     602,     604,
     606,     608,     610,     612,     614,     616,     618,     620,     622,     624,
** ... 92 like lines cut
*SURFACE, NAME=reactor_inner
reactor_inner_S3, S3
*ELSET, ELSET=reactor_outter_S5
       1,       3,       5,       7,       9,      11,      13,      15,      17,      19,
      21,      23,      25,      27,      29,      31,      33,      35,      37,      39,
      41,      43,      45,      47,      49,      51,      53,      55,      57,      59,
      61,      63,      65,      67,      69,      71,      73,      75,      77,      79,
      81,      83,      85,      87,      89,      91,      93,      95,      97,      99,
     101,     103,     105,     107,     109,     111,     113,     115,     117,     119,
     121,     123,     125,     127,     129,     131,     133,     135,     137,     139,
     141,     143,     145,     147,     149,     151,     153,     155,     157,     159,
     161,     163,     165,     167,     169,     171,     173,     175,     177,     179,
     181,     183,     185,     187,     189,     191,     193,     195,     197,     199,
     201,     203,     205,     207,     209,     211,     213,     215,     217,     219,
     221,     223,     225,     227,     229,     231,     233,     235,     237,     239,
     241,     243,     245,     247,     249,     251,     253,     255,     257,     259,
     261,     263,     265,     267,     269,     271,     273,     275,     277,     279,
     281,     283,     285,     287,     289,     291,     293,     295,     297,     299,
     301,     303,     305,     307,     309,     311,     313,     315,     317,     319,
     321,     323,     325,     327,     329,     331,     333,     335,     337,     339,
     341,     343,     345,     347,     349,     351,     353,     355,     357,     359,
     361,     363,     365,     367,     369,     371,     373,     375,     377,     379,
     381,     383,     385,     387,     389,     391,     393,     395,     397,     399,
** ... 115 like lines cut
*SURFACE, NAME=reactor_outter
reactor_outter_S5, S5
**
********************************** P R O P E R T I E S ************************
*SOLID SECTION, ELSET=reactor, MATERIAL=Default-Steel
**
*END PART
**
**
**
********************************** E N D   P A R T S **********************************
**
**
********************************** A S S E M B L Y ************************************
**
*ASSEMBLY, NAME=ASSEMBLY1
**
*INSTANCE, NAME=Part-Default_1, PART=Part-Default
*END INSTANCE
**
*END ASSEMBLY
**
**
**
*MATERIAL, NAME = Default-Steel
*ELASTIC, TYPE=ISOTROPIC
2.068000e+05, 2.900000e-01
*DENSITY
7.000000e-06
*CONDUCTIVITY,TYPE=ISO
4.500000e-02
*SPECIFIC HEAT
5.000000e+02
**
**
************************************** H I S T O R Y *************************************
**
*PREPRINT
**
**************************************** S T E P 1 ***************************************
*STEP,INC=100,NAME=Default Set
**
*STATIC
1, 1, 1e-05, 1
**
**
**
**
*END STEP
